 &NAMRGRI
  NRGRI(0001)=   20,
  NRGRI(0002)=   25,
  NRGRI(0003)=   32,
  NRGRI(0004)=   40,
  NRGRI(0005)=   45,
  NRGRI(0006)=   48,
  NRGRI(0007)=   54,
  NRGRI(0008)=   60,
  NRGRI(0009)=   64,
  NRGRI(0010)=   64,
  NRGRI(0011)=   64,
  NRGRI(0012)=   64,
  NRGRI(0013)=   64,
  NRGRI(0014)=   64,
  NRGRI(0015)=   64,
  NRGRI(0016)=   64,
  NRGRI(0017)=   64,
  NRGRI(0018)=   64,
  NRGRI(0019)=   64,
  NRGRI(0020)=   64,
  NRGRI(0021)=   64,
  NRGRI(0022)=   64,
  NRGRI(0023)=   64,
  NRGRI(0024)=   64,
  NRGRI(0025)=   60,
  NRGRI(0026)=   54,
  NRGRI(0027)=   48,
  NRGRI(0028)=   45,
  NRGRI(0029)=   40,
  NRGRI(0030)=   32,
  NRGRI(0031)=   25,
  NRGRI(0032)=   20,
 /
